Circuit: * E:\Documentos\GitHub\lab3SRA\circuito2.4SANTI.asc

Direct Newton iteration failed to find .op point.  (Use ".option noopiter" to skip.)
Starting Gmin stepping
Gmin = 10
vernier = 0.5
vernier = 0.25
vernier = 0.125
Gmin = 6.49
vernier = 0.0625
vernier = 0.03125
vernier = 0.015625
vernier = 0.0078125
Gmin = 6.41463
vernier = 0.00390625
vernier = 0.00195313
vernier = 0.000976563
vernier = 0.000488281
Gmin = 6.40681
Gmin = 0
Gmin stepping failed

Starting source stepping with srcstepmethod=0
Source Step = 3.0303%
Source Step = 33.3333%
Source Step = 63.6364%
Source Step = 85.0379%
Source Step = 86.9318%
Source Step = 87.6657%
Source Step = 87.7841%
Source Step = 87.9025%
Source Step = 88.0208%
Source Step = 88.1392%
vernier = 0.00585938
Source Step = 88.2635%
Source Step = 88.4411%
Source Step = 88.6186%
Source Step = 88.7962%
Source Step = 88.9737%
Source Step = 89.1513%
vernier = 0.00878906
Source Step = 89.4176%
Source Step = 89.6839%
Source Step = 89.9503%
Source Step = 90.2166%
Source Step = 90.483%
vernier = 0.0131836
Source Step = 90.8691%
Source Step = 91.2686%
Source Step = 91.6681%
Source Step = 92.0676%
Source Step = 92.4672%
vernier = 0.0197754
Source Step = 93.0265%
Source Step = 93.6257%
Source Step = 94.225%
Source Step = 94.8242%
Source Step = 95.4235%
vernier = 0.0296631
Source Step = 96.2325%
Source Step = 97.1313%
Source Step = 98.0302%
Source Step = 98.9291%
Source Step = 99.828%
Source stepping succeeded in finding the operating point.


Date: Wed Dec 13 21:43:27 2023
Total elapsed time: 0.607 seconds.

tnom = 27
temp = 27
method = trap
totiter = 3372
traniter = 0
tranpoints = 0
accept = 0
rejected = 0
matrix size = 154
fillins = 293
solver = Normal
Matrix Compiler1:    1109 opcodes
Matrix Compiler2: 18.27 KB object code size  2.4/2.8/[1.1]

